[General]
network = myExample
sim-time-limit = 10000s
record-eventlog=true

**.tcpType = "TCP"
**.tcp.advertisedWindow = 65535
**.tcp.delayedAcksEnabled = false
**.tcp.increasedIWEnabled = false
**.tcp.limitedTransmitEnabled = false
 **.tcp.mss=1000
**.tcp.nagleEnabled = false
**.tcp.receiveQueueClass = default
**.tcp.recordStats = true
**.tcp.sackSupport = false
**.tcp.sendQueueClass = default
#**.tcp.tcpAlgorithmClass = "TCPSimpleAlg"
**.tcp.timestampSupport = false
**.tcp.windowScalingSupport = false

**.client.numTcpApps = 1
**.client.tcpApp[*].typename = "TCPSessionApp"
**.client.tcpApp[*].localAddress = ""
**.client.tcpApp[*].localPort = -1
**.client.tcpApp[*].connectAddress = "server"
**.client.tcpApp[*].connectPort = 80

**.client*.tcpApp[0].tOpen = 1.0s
**.client*.tcpApp[0].tSend = 1.1s
#**.client*.tcpApp[0].tClose = 110000s

**.client*.tcpApp[0].sendBytes = 10000B




**.server.numTcpApps = 1
#**.server.tcpApp[*].typename = "TCPEchoApp"
#
#**.server.tcpApp[*].localAddress = ""
#**.server.tcpApp[*].localPort = 80
#**.server*.tcpApp[0].echoFactor = 1.0
#**.server*.tcpApp[0].echoDelay = 0
#**.tcpApp[*].dataTransferMode = "bytecount"

 
**.server.tcpApp[*].typename = "TCPSinkApp"
**.server.tcpApp[*].localAddress = ""
**.server.tcpApp[*].localPort = 80
**.tcpApp[*].dataTransferMode = "bytecount"


# NIC configuration
**.client.ppp[*].queueType = "DropTailQueue"
**.client.ppp[*].queue.frameCapacity = 200

**.server.ppp[*].queueType = "DropTailQueue"
**.server.ppp[*].queue.frameCapacity = 200

#**.ppp[*].numOutputHooks = 1
#**.ppp[*].outputHook[*].typename = "OrdinalBasedDropper"

 #**.server.ppp[*].outputHook[*].dropsVector="2;"

#**.numPcapRecorders = 1


#**.client.pcapRecorder[*].pcapFile = "clientlog.pcap"
#**.server.pcapRecorder[*].pcapFile = "serverlog.pcap"

**.networkLayer.configurator.networkConfiguratorModule = ""
