[General]
network = CongestionWindow
sim-time-limit = 100s


**.udpType = "UDP"


**.client.numUdpApps = 1
**.client.udpApp[*].typename = "TCPBasicClientApp"
**.client.tcpApp[*].localAddress = ""
**.client.tcpApp[*].localPort = -1
**.client.tcpApp[*].connectAddress = "server"
**.client.tcpApp[*].connectPort = 80
**.client.tcpApp[*].startTime = 0s
**.client.tcpApp[*].requestLength = 350B
**.client.tcpApp[*].replyLength = 5000B
**.client.tcpApp[*].numRequestsPerSession = 1
**.client.tcpApp[*].thinkTime = 3s
**.client.tcpApp[*].idleInterval = 10s
**.client.tcpApp[*].reconnectInterval = 50s

**.server.numTcpApps = 1
**.server.tcpApp[*].typename = "TCPSrvHostApp"
**.server.tcpApp[*].serverThreadClass = "TCPGenericSrvThread"
**.server.tcpApp[*].localAddress = ""
**.server.tcpApp[*].localPort = 80

**.tcpApp[*].dataTransferMode = "object"

**.client.ppp[*].queueType = "DropTailQueue"
**.client.ppp[*].queue.frameCapacity = 50

**.server.ppp[*].queueType = "DropTailQueue"
**.server.ppp[*].queue.frameCapacity = 50

**.ppp[*].numOutputHooks = 1
**.ppp[*].outputHook[*].typename = "OrdinalBasedDropper"

**.server.ppp[*].outputHook[*].dropsVector="100;"

**.numPcapRecorders = 1


**.client.pcapRecorder[*].pcapFile = "clientlog.pcap"
**.server.pcapRecorder[*].pcapFile = "serverlog.pcap"

**.networkLayer.configurator.networkConfiguratorModule = ""
